/*--------------------------------*- C++ -*----------------------------------*\
| =========                 |                                                 |
| \\      /  F ield         | OpenFOAM: The Open Source CFD Toolbox           |
|  \\    /   O peration     | Version:  v1906                                 |
|   \\  /    A nd           | Web:      www.OpenFOAM.com                      |
|    \\/     M anipulation  |                                                 |
\*---------------------------------------------------------------------------*/
FoamFile
{
    version     2.0;
    format      ascii;
    class       dictionary;
    location    "system";
    object      fvSolution;
}
// * * * * * * * * * * * * * * * * * * * * * * * * * * * * * * * * * * * * * //

solvers
{
    pa
    {
        solver          GAMG;
        smoother        GaussSeidel;
        tolerance       1e-9;
        relTol          0.0;
    }

    Ua
    {
        solver          smoothSolver;
        smoother        GaussSeidel;
        tolerance       1e-9;
        relTol          0.0;
    }
}

SIMPLE
{
    nNonOrthogonalCorrectors 0;
    paRefCell 0;
    paRefValue 0;
}

relaxationFactors
{
    fields
    {
        pa        0.7;
    }
    equations
    {
        Ua        0.3;
    }
}

adjoint
{
    ATC 0.0;
}

// ************************************************************************* //
